      51
SCF Done               4.52125459
O            16.107608329        14.615375908        20.057103976
O            14.133503800        15.039055041        21.014003064
C            15.356956567        14.716504426        21.073225657
Fe           12.868305037        15.597661062        19.508926926
O            11.489932674        16.267800882        18.155924742
C            11.043536607        15.837782288        17.051168869
O            11.467459409        14.787771610        16.481958997
O            15.868864577        14.949108138        15.986834123
O            13.923108841        14.179288238        15.233741382
O            19.184911135        16.908448595        12.799142499
O            18.740555131        17.017086590        10.542253565
O            12.878505501        14.367804779        10.348281499
O            14.379646485        15.260472259         8.847455836
C            16.184555311        15.782878378        11.030311635
C            14.576837736        14.835614767        12.576096538
C            17.068455372        16.039968183        12.090936325
C            15.446954442        15.084450216        13.652397426
C            16.691469694        15.687510109        13.397907061
C            14.937001976        15.181283161        11.262545454
C            15.056486604        14.715761315        15.039401680
C            14.012411729        14.915302271        10.132040416
C            18.384083963        16.676458002        11.831058473
O            13.897285809        17.337007755        19.172353075
Fe           15.872577256        14.771681164        18.026656578
O            13.891698478        14.589119753        18.129202007
Fe           12.933392447        13.404378361        16.846417488
O            11.717888779        13.978433661        20.009520214
O            11.929170311        12.168994369        15.502936833
O            11.842660971        12.510435399        18.329081465
C            11.437223255        12.863382978        19.476272558
O            14.290192494        11.883175794        17.061818694
O            17.943732788        14.964310308        17.914094710
O            15.789079385        16.814393465        18.103351372
O            16.155845164        12.747713423        17.936083711
C            14.982933344        17.655529389        18.600826303
C            15.468400741        11.770716583        17.514972674
H            18.310149433        14.176218998        18.388481426
H            18.168812075        15.730008219        18.500197788
H            13.615881365        14.371217918        12.760661496
H            17.369385047        15.883897436        14.219491626
H            16.468571218        16.051957861        10.020614107
H            11.788348699        11.314345730        15.982682295
H            12.592049919        11.949951069        14.800646662
H            19.644441479        17.424412155        10.580327146
H            13.634292448        15.004048802         8.244868365
F            11.915639727        16.536301070        20.793461603
H            15.913021275        10.782331315        17.543980198
H            10.253788362        16.399616641        16.565204888
H            10.814685034        12.172393352        20.033461047
H            15.786381580        14.515796744        22.048333752
H            15.236236037        18.707595337        18.534161832
